Version 4
SHEET 1 3044 724
WIRE 144 -176 16 -176
WIRE 512 -176 224 -176
WIRE 784 -176 512 -176
WIRE 16 -128 16 -176
WIRE 512 -128 512 -176
WIRE 512 -128 464 -128
WIRE 560 -128 512 -128
WIRE 464 -80 464 -128
WIRE 560 -80 560 -128
WIRE 464 32 464 -16
WIRE 464 128 464 96
WIRE 512 128 464 128
WIRE 560 128 560 -16
WIRE 560 128 512 128
WIRE 512 176 512 128
FLAG 640 304 0
FLAG 784 224 0
FLAG 640 224 Vcc
FLAG 784 304 -Vcc
FLAG 16 -48 0
FLAG 512 176 0
SYMBOL voltage 640 208 R0
SYMATTR InstName V2
SYMATTR Value 9
SYMBOL voltage 784 208 R0
SYMATTR InstName V3
SYMATTR Value 9
SYMBOL voltage 16 -144 R0
WINDOW 3 24 140 Left 2
SYMATTR Value PWL(0 -4.5 1 4.5)
SYMATTR Value2 AC 1 0
SYMATTR InstName V1
SYMBOL diode 480 -80 M0
SYMATTR InstName D1
SYMATTR Value 1N4148
SYMBOL diode 544 -16 M180
WINDOW 0 24 64 Left 2
WINDOW 3 24 0 Left 2
SYMATTR InstName D2
SYMATTR Value 1N4148
SYMBOL res 240 -192 R90
WINDOW 0 0 56 VBottom 2
WINDOW 3 32 56 VTop 2
SYMATTR InstName R1
SYMATTR Value 1k
SYMBOL diode 480 32 M0
SYMATTR InstName D3
SYMATTR Value 1N4148
TEXT 336 208 Left 2 !.tran 0 1000m 0 0
